---
layout: post
title: "LS-DYNA模拟炸药在无限空域中的爆炸 - 博文附件"
date:   2024-09-14
tags: [LS,DYNA,模拟,壁面,边界条件]
comments: true
author: admin
---
# LS-DYNA模拟炸药在无限空域中的爆炸 - 博文附件

## 简介

本资源文件是用于LS-DYNA模拟炸药在无限空域中爆炸的K文件，适用于学习和参考。文件中包含了两种不同的边界条件设置：

1. **无反射边界条件**：适用于模拟无限空域中的爆炸，避免边界反射对模拟结果的影响。
2. **约束壁面节点的6个自由度作为刚性壁面条件**：适用于模拟有限空间内的爆炸，约束壁面节点的所有自由度以模拟刚性壁面。

## 使用说明

1. **下载文件**：请从本仓库中下载相应的K文件。
2. **导入LS-DYNA**：将下载的K文件导入到LS-DYNA软件中。
3. **选择边界条件**：根据您的模拟需求，选择合适的边界条件进行设置。
4. **运行模拟**：按照LS-DYNA的操作流程运行模拟，观察炸药在不同边界条件下的爆炸效果。

## 注意事项

- 本资源文件仅供学习和参考使用，实际应用中请根据具体需求进行调整。
- 在使用无反射边界条件时，请确保模拟区域足够大，以避免边界反射对结果的影响。
- 在使用刚性壁面条件时，请注意壁面节点的约束设置，确保模拟结果的准确性。

## 参考文献

- [LS-DYNA官方文档](https://www.dynasupport.com/manuals/ls-dyna-manual)
- [LS-DYNA用户论坛](https://www.dynasupport.com/forum)

## 联系我们

如有任何问题或建议，请通过以下方式联系我们：

- 邮箱：example@example.com
- 论坛：[LS-DYNA用户论坛](https://www.dynasupport.com/forum)

感谢您的使用与支持！

## 下载链接

[LS-DYNA模拟炸药在无限空域中的爆炸-博文附件](https://pan.quark.cn/s/6269ae0c00bf)