---
layout: post
title: "ANSYS CFX 中文帮助文档"
date:   2023-04-24
tags: [文档,中文,ANSYS,CFX,帮助]
comments: true
author: admin
---
# ANSYS CFX 中文帮助文档

## 资源介绍

本仓库提供了一个名为 `ansys cfx(中文).pdf` 的资源文件，该文件是 ANSYS CFX 软件的中文帮助文档。对于那些在阅读英文版帮助文档时感到困扰的用户，这个中文版文档将是一个非常有用的资源。

## 文件描述

- **文件名**: `ansys cfx(中文).pdf`
- **文件类型**: PDF 文档
- **文件大小**: [文件大小]
- **适用人群**: 需要使用 ANSYS CFX 软件的用户，尤其是对英文文档阅读有困难的用户。

## 使用说明

1. 下载本仓库中的 `ansys cfx(中文).pdf` 文件。
2. 使用 PDF 阅读器打开文件。
3. 根据需要查阅相关章节，获取 ANSYS CFX 软件的中文帮助信息。

## 注意事项

- 本文件为中文翻译版本，可能存在翻译不准确或遗漏的情况，建议结合英文原版文档使用。
- 如有任何问题或建议，欢迎在仓库中提出。

## 贡献

如果您对本文件有任何改进建议或发现了错误，欢迎提交 Pull Request 或 Issue，帮助我们完善这个资源。

---

希望这个中文帮助文档能够帮助您更好地使用 ANSYS CFX 软件！

## 下载链接

[ANSYSCFX中文帮助文档](https://pan.quark.cn/s/4364f1813584)