---
layout: post
title: "ANSYS LS-DYNA动力分析方法与工程实例（第二版）资源下载"
date:   2021-05-16
tags: [DYNA,ANSYS,LS,实例,资源]
comments: true
author: admin
---
# ANSYS LS-DYNA动力分析方法与工程实例（第二版）资源下载

欢迎来到**ANSYS LS-DYNA动力分析方法与工程实例（第二版）**资源页面。本资源是专为那些寻求深入理解ANSYS LS-DYNA软件在动力学领域应用的工程师和学者准备的宝贵资料。LS-DYNA是一款强大的非线性有限元分析软件，广泛应用于汽车碰撞、爆炸模拟、金属成形等多个工程领域的动态问题研究。

## 资源简介

本资源包精心汇编了《ANSYS LS-DYNA动力分析方法与工程实例（第二版）》一书中的关键模型文件与案例研究。通过这些实际案例的深入剖析，用户可以学习到如何高效地使用ANSYS LS-DYNA进行复杂的动力学仿真，包括但不限于碰撞仿真、流固耦合分析等高级技术应用。

### 主要内容包括：
- **理论指导**：简明扼要地介绍了LS-DYNA的基本概念与核心动力学解算器。
- **工程实例**：选取自真实应用场景的多个详细案例，覆盖从建模、材料定义到求解设置的全过程。
- **模型文件**：直接可导入ANSYS环境的案例模型，帮助用户快速上手并实践所学知识。
- **结果解析**：解释仿真结果，帮助理解分析数据背后的意义，提升解决问题的能力。

## 使用指南

1. **软件要求**：确保您已安装合适版本的ANSYS软件，以兼容提供的模型文件格式。
2. **学习路径**：建议先阅读书籍的相关章节，再结合提供的模型进行操作，以达到最佳学习效果。
3. **案例实践**：每个实例都提供了详尽的步骤说明，跟随指南操作，实践中深化理解。
4. **交流分享**：鼓励加入相关专业论坛或社群，与其他用户交流学习心得及解决遇到的问题。

## 注意事项

- 请尊重知识产权，合法使用资源，仅供个人学习与研究使用。
- 在使用过程中如遇技术难题，建议参考官方文档或参与在线社区讨论。

通过本资源的学习，您将能够掌握ANSYS LS-DYNA的关键技能，并将其有效应用于您的工程项目中，提升您的专业能力。立即开始您的动力学分析之旅，探索工程仿真的无限可能！

---

本资源是学习ANSYS LS-DYNA不可多得的辅助材料，愿它成为你技术进阶之路上的有力支撑。祝学习顺利！

## 下载链接

[ANSYSLS-DYNA动力分析方法与工程实例第二版资源下载](https://pan.quark.cn/s/2e5521a298b7)